C3H10O2
APtclcactv03032003593D 0   0.00000     0.00000
 
 15 13  0  0  0  0  0  0  0  0999 V2000
   -4.1766    1.0472    0.1796 O   0  0  0  0  0  0  0  0  0  0  0  0
   -4.4314    1.9086   -0.1783 H   0  0  0  0  0  0  0  0  0  0  0  0
   -2.9248    0.5616   -0.3097 C   0  0  0  0  0  0  0  0  0  0  0  0
   -2.6247   -0.8001    0.3200 C   0  0  0  0  0  0  0  0  0  0  0  0
   -1.2845   -1.3200   -0.2038 C   0  0  0  0  0  0  0  0  0  0  0  0
    8.9377    1.0929   -0.2361 H   0  0  0  0  0  0  0  0  0  0  0  0
    9.2668    0.2374    0.0719 O   0  0  0  0  0  0  0  0  0  0  0  0
   10.1194   -0.0159   -0.3078 H   0  0  0  0  0  0  0  0  0  0  0  0
   -2.9740    0.4578   -1.3936 H   0  0  0  0  0  0  0  0  0  0  0  0
   -2.1347    1.2652   -0.0475 H   0  0  0  0  0  0  0  0  0  0  0  0
   -2.5756   -0.6963    1.4039 H   0  0  0  0  0  0  0  0  0  0  0  0
   -3.4149   -1.5037    0.0579 H   0  0  0  0  0  0  0  0  0  0  0  0
   -1.3336   -1.4238   -1.2877 H   0  0  0  0  0  0  0  0  0  0  0  0
   -0.4943   -0.6164    0.0583 H   0  0  0  0  0  0  0  0  0  0  0  0
   -1.0707   -2.2901    0.2448 H   0  0  0  0  0  0  0  0  0  0  0  0
  1  2  1  0  0  0  0
  1  3  1  0  0  0  0
  3  4  1  0  0  0  0
  4  5  1  0  0  0  0
  6  7  1  0  0  0  0
  7  8  1  0  0  0  0
  3  9  1  0  0  0  0
  3 10  1  0  0  0  0
  4 11  1  0  0  0  0
  4 12  1  0  0  0  0
  5 13  1  0  0  0  0
  5 14  1  0  0  0  0
  5 15  1  0  0  0  0
M  END
$$$$
