15
C3H10O2
O       -4.176600000      1.047200000      0.179600000
H       -4.431400000      1.908600000     -0.178300000
C       -2.924800000      0.561600000     -0.309700000
C       -2.624700000     -0.800100000      0.320000000
C       -1.284500000     -1.320000000     -0.203800000
H       -4.770816055     -1.160616814      2.002411909
O       -5.355682241     -0.390615140      2.011357695
H       -4.932809736      0.231456399      1.403520888
H       -2.974000000      0.457800000     -1.393600000
H       -2.134700000      1.265200000     -0.047500000
H       -2.575600000     -0.696300000      1.403900000
H       -3.414900000     -1.503700000      0.057900000
H       -1.333600000     -1.423800000     -1.287700000
H       -0.494300000     -0.616400000      0.058300000
H       -1.070700000     -2.290100000      0.244800000
